Version 4
SHEET 1 880 680
WIRE 384 192 304 192
WIRE 608 192 464 192
WIRE 480 240 384 240
WIRE 384 320 384 240
WIRE 192 336 96 336
WIRE 304 336 304 192
WIRE 304 336 272 336
WIRE 352 336 304 336
WIRE 608 352 608 192
WIRE 608 352 416 352
WIRE 704 352 608 352
WIRE 352 368 304 368
WIRE 304 416 304 368
WIRE 96 448 96 416
WIRE 384 512 384 384
WIRE 480 512 384 512
FLAG 304 416 0
FLAG 480 320 0
FLAG 480 432 0
FLAG 96 448 0
SYMBOL res 480 176 R90
WINDOW 0 0 56 VBottom 2
WINDOW 3 32 56 VTop 2
SYMATTR InstName R2
SYMATTR Value 100
SYMBOL res 288 320 R90
WINDOW 0 0 56 VBottom 2
WINDOW 3 32 56 VTop 2
SYMATTR InstName 10
SYMATTR Value 100
SYMBOL voltage 480 224 R0
SYMATTR InstName V1
SYMATTR Value 15
SYMBOL voltage 480 416 R0
SYMATTR InstName V2
SYMATTR Value 15
SYMBOL Misc/signal 96 320 R0
SYMATTR InstName V3
SYMATTR Value SINE(0.01 1 1K)
SYMBOL LM741 384 288 R0
SYMATTR InstName U1
TEXT 680 496 Left 2 !.tran 10m
TEXT 624 416 Left 2 !.include LM741.lib
